urls = [
"https://www.devwalks.com/lets-build-instagram-in-rails-part-1/",
"https://www.rubyplus.com/articles/4171-Authentication-from-Scratch-in-Rails-5",
"https://books.google.com/books?id=KND8eKkWGuAC&pg=PA180&lpg=PA180&dq=implement+the+ability+to+edit+database+records+from+scratch+in+rails&source=bl&ots=dgLuneJLh1&sig=30P5vHvT7FGMG6-WSnF9HFHr9So&hl=en&sa=X&ved=0ahUKEwi2oYnzhPbWAhUB5mMKHcGsDuQQ6AEIXTAJ#v=onepage&q=implement%20the%20ability%20to%20edit%20database%20records%20from%20scratch%20in%20rails&f=false",
"https://rails.devcamp.com/dissecting-rails-5/data-flow-rails/how-to-use-link-to-method-rails-creating-dynamic-links",
"https://mixandgo.com/blog/how-to-use-link_to-in-rails",
"https://apidock.com/rails/ActionView/Helpers/UrlHelper/link_to",
"https://stackoverflow.com/questions/25169961/rails-dynamic-link-tos",
"https://stackoverflow.com/questions/30315498/ruby-on-rails-how-to-link-route-from-one-view-page-to-another-view-page-with-a",
"https://stackoverflow.com/questions/1038770/dynamic-paths-in-helper",
"https://stackoverflow.com/questions/3367776/how-can-i-insert-a-variable-in-to-a-href-value-in-a-link-in-rails",
"https://www.sitepoint.com/making-links/",
"https://launchschool.com/books/demystifying_rails/read/link_to",
"https://rails.devcamp.com/17/133/how-to-implement-show-action-scratch-rails",
"https://rails.devcamp.com/dissecting-rails-5/data-flow-rails/build-new-create-functionality-scratch-rails",
"http://guides.rubyonrails.org/getting_started.html",
"https://www.sitepoint.com/building-your-first-rails-application-views-and-controllers/",
"https://code.tutsplus.com/articles/building-a-forum-from-scratch-with-ruby-on-rails--net-5297",
"https://medium.com/@danamulder/tutorial-create-a-simple-messaging-system-on-rails-d9b94b0fbca1",
"http://blog.teamtreehouse.com/static-pages-ruby-rails",
"https://www.devwalks.com/lets-build-instagram-in-rails-part-1/",
"https://books.google.com/books?id=jBu8hv9SXPoC&pg=PA104&lpg=PA104&dq=how+to+implement+the+show+action+from+scratch+in+rails&source=bl&ots=PDyh_HEpg2&sig=dUANUK6fz2SlkO2eUnqYfFT5IOs&hl=en&sa=X&ved=0ahUKEwjEmZLlh_bWAhVCyGMKHblmBU4Q6AEIXDAI#v=onepage&q=how%20to%20implement%20the%20show%20action%20from%20scratch%20in%20rails&f=false",
"https://utahedu.devcamp.com/sie2017/guide/building-ability-delete-items-rails",
"https://stackoverflow.com/questions/4177686/how-do-you-delete-an-activerecord-object",
"https://stackoverflow.com/questions/2535619/restricting-edit-and-delete",
"https://stackoverflow.com/questions/5322298/deleting-all-records-in-a-database-table",
"https://teamtreehouse.com/library/ruby-booleans/build-a-simple-todo-list-program/part-4-removing-todo-items",
"https://github.com/rails/rails/issues/6994",
"https://github.com/ryanb/cancan/issues/608",
"https://books.google.com/books?id=BaitKM5lPQUC&pg=PA10&lpg=PA10&dq=building+the+ability+to+delete+items+in+rails&source=bl&ots=NvW-6IDoB7&sig=uVSAX7L0yPMnghaumVpCLlLlPcU&hl=en&sa=X&ved=0ahUKEwjY-ZmfiPbWAhVO2WMKHVBDCF0Q6AEIXzAJ#v=onepage&q=building%20the%20ability%20to%20delete%20items%20in%20rails&f=false",
"http://guides.rubyonrails.org/routing.html",
"https://rails.devcamp.com/dissecting-rails-5/data-flow-rails/how-to-implement-custom-routes-pages-rails",
"https://stackoverflow.com/questions/16693185/how-to-add-custom-routes-to-resource-route",
"https://stackoverflow.com/questions/23368259/custom-route-to-custom-page-in-rails-4",
"https://stackoverflow.com/questions/11178267/ruby-on-rails-route-to-a-custom-method-in-the-controller-from-the-view",
"http://blog.teamtreehouse.com/static-pages-ruby-rails",
"https://jerodsanto.net/2013/01/dynamic-routes-to-static-pages-on-rails/",
"https://github.com/plataformatec/devise/wiki/How-To:-Customize-routes-to-user-registration-pages",
"https://stackoverflow.com/questions/12235718/override-show-resource-route-in-rails",
"https://stackoverflow.com/questions/11570924/ruby-on-rails-how-to-override-the-show-route-of-a-resource",
"http://guides.rubyonrails.org/v3.2/routing.html",
"http://millarian.com/rails/quick-tip-override-rails-generated-urls/",
"http://webdev.cas.msu.edu/s12/webapps/bonappetite/devise/ruby/1.8/gems/railties-3.1.3/guides/output/routing.html",
"https://apidock.com/rails/ActionController/Resources/resources",
"https://github.com/activeadmin/activeadmin/issues/192",
"https://activeadmin.info/2-resource-customization.html",
"https://rails.devcamp.com/dissecting-rails-5/data-flow-rails/how-to-implement-permalinks-rails-application-friendly-id-gem",
"https://github.com/norman/friendly_id",
"http://vaidehijoshi.github.io/blog/2015/12/15/youve-got-a-friend-in-friendly-id/",
"http://railscasts.com/episodes/314-pretty-urls-with-friendlyid?view=asciicast",
"https://gorails.com/episodes/pretty-urls-with-friendly-id",
"https://stackoverflow.com/questions/25554011/rails-4-friendly-id-gem-how-to-generate-slug-with-a-specific-string",
"https://medium.com/ruby-on-rails-web-application-development/friendlyid-tutorial-rubyonrails-canonical-slug-urls-in-ruby-on-rails-e3706a21c631",
"https://richonrails.com/articles/create-friendlier-looking-urls-with-friendlyid",
"http://kapilrajnakhwa.com/blogs/user-friendly-urls-with-friendly_id-gem-in-rails-4",
"https://rails.devcamp.com/dissecting-rails-5/data-flow-rails/how-to-use-enums-rails-manage-data-stages",
"http://learnability.org/courses/197296/lectures/3006996",
"https://stackoverflow.com/questions/22827270/how-to-use-i18n-with-rails-4-enums",
"https://www.justinweiss.com/articles/creating-easy-readable-attributes-with-activerecord-enums/",
"http://api.rubyonrails.org/v5.1/classes/ActiveRecord/Enum.html",
"https://blog.codeship.com/advanced-enumeration-with-ruby/",
"https://apidock.com/rails/ActiveRecord/Enum",
"http://www.findz.info/rails-scopes-enum.html",
"https://blog.carbonfive.com/2012/10/02/enumerator-rubys-versatile-iterator/",
"https://rails.devcamp.com/dissecting-rails-5/133/how-to-implement-custom-action-rails-button-click",
"https://stackoverflow.com/questions/23485181/ror-button-click-action-call",
"https://stackoverflow.com/questions/38553586/call-custom-controller-action-from-view-when-i-click-on-a-button-rails",
"https://stackoverflow.com/questions/17243200/how-to-call-a-controller-method-from-a-button-in-rails-4",
"https://stackoverflow.com/questions/3763031/button-to-action-destroy-looks-for-show"
"https://stackoverflow.com/questions/8684467/button-to-with-get-method-option-in-rails",
"https://stackoverflow.com/questions/10414514/rails-change-routing-of-submit-in-form-for",
"https://stackoverflow.com/questions/10714119/ruby-on-rails-call-controller-method-from-a-view",
"https://stackoverflow.com/questions/4671284/rails-update-a-single-attribute-link-with-custom-action-or-form-with-hidden",
"http://thelazylog.com/custom-dialog-for-data-confirm-in-rails/",
"https://github.com/edx/edx-platform/wiki/How-to-Rebase-a-Pull-Request",
"https://confluence.atlassian.com/adminjiraserver070/configuring-workflow-triggers-749383267.html",
"https://www.atlassian.com/blog/jira-software/jira-release-management-steps",
"https://docs.microsoft.com/en-us/vsts/release-notes/2015/oct-30-team-services",
"https://docs.microsoft.com/en-us/vsts/git/pull-requests",
"https://screenful.com/dashboard-for-github/",
"https://www.projectmanager.com/blog/8-must-pm-excel-templates",
"https://code.tutsplus.com/tutorials/using-pull-requests-as-code-reviews--cms-21959",
"http://scholarslab.org/research-and-development/forking-fetching-pushing-pulling/",
"http://scholarslab.org/research-and-development/forking-fetching-pushing-pulling/",
"https://www.smartsheet.com/how-set-project-management-dashboard-smartsheet",
"https://rails.devcamp.com/dissecting-rails-5/data-flow-rails/rails-routing-data-flow",
"https://rails.devcamp.com/trails/dissecting-rails-5/campsites/data-flow-rails",
"https://chrisherring.co/posts/testing-a-feature-with-rails-and-rspec-a-deep-dive",
"https://emberigniter.com/5-essential-ember-concepts/",
"http://blog.backand.com/model-view-controller-mvc-deep-dive/",
"http://guides.rubyonrails.org/v2.3/getting_started.html",
"https://www.udemy.com/professional-rails-5-development-course/?locale=pt_BR&persist_locale=",
"https://www.justinweiss.com/articles/how-do-you-do-a-rails-deep-dive/",
"https://github.com/plataformatec/devise",
"http://guides.railsgirls.com/devise",
"https://launchschool.com/blog/how-to-use-devise-in-rails-for-authentication",
"https://gorails.com/episodes/user-authentication-with-devise",
"https://www.sitepoint.com/create-a-chat-app-with-rails-5-actioncable-and-devise/",
"https://rails.devcamp.com/dissecting-rails-5/rails-5-authentication/how-to-install-devise-rails-5",
"http://www.korenlc.com/rails-tutorial-authentication-with-devise/",
"http://codepany.com/blog/rails-5-user-accounts-with-3-types-of-roles-devise-rails_admin-cancancan/",
"https://github.com/plataformatec/devise/wiki/How-To:-Allow-users-to-sign-in-using-their-username-or-email-address",
"https://github.com/plataformatec/devise/wiki/How-To:-Set-up-devise-as-a-single-user-system",
"https://launchschool.com/blog/how-to-use-devise-in-rails-for-authentication",
"https://gorails.com/episodes/user-authentication-with-devise",
"https://thinkster.io/tutorials/angular-rails/adding-user-authentication-with-devise",
"https://medium.com/@limichelle21/implementing-devise-rails-with-angular-eeb5ca7d9dcc",
"https://www.airpair.com/ruby-on-rails/posts/authentication-with-angularjs-and-ruby-on-rails",
"https://www.webascender.com/blog/securing-rails-login-devise/",
"https://www.digitalocean.com/community/tutorials/how-to-configure-devise-and-omniauth-for-your-rails-application",
"https://www.devwalks.com/lets-build-instagram-with-rails-like-me-and-tell-me-im-beautiful/",
"https://utahedu.devcamp.com/sie2017/guide/building-custom-routes-authentication-pages-devise-rails-5",
"https://github.com/plataformatec/devise/wiki/How-To:-Change-the-default-sign_in-and-sign_out-routes",
"https://github.com/plataformatec/devise/wiki/How-To:-Define-resource-actions-that-require-authentication-using-routes.rb",
"https://github.com/plataformatec/devise/wiki/How-To:-Define-a-different-root-route-for-logged-in-out-users",
"https://stackoverflow.com/questions/3827011/devise-custom-routes-and-login-pages",
"https://stackoverflow.com/questions/4954876/setting-devise-login-to-be-root-page",
"https://stackoverflow.com/questions/23555618/redirect-to-log-in-page-if-user-is-not-authenticated-with-devise",
"https://stackoverflow.com/questions/18997874/devise-with-rails-4-authenticated-root-route-not-working",
"https://stackoverflow.com/questions/22063026/how-do-i-override-devise-controller-and-devise-routes-at-the-same-time",
"https://rails.devcamp.com/dissecting-rails-5/rails-5-authentication/enable-users-logout-dynamically-render-view-content-rails-5",
"https://rails.devcamp.com/trails/dissecting-rails-5/campsites/rails-5-authentication",
"https://stackoverflow.com/questions/38948621/ruby-on-rails-redirect-to-after-login-or-logout-doesnt-do-ajax-js-css-loads-a",
"https://github.com/plataformatec/devise/wiki/How-To:-Add-sign_in,-sign_out,-and-sign_up-links-to-your-layout-template",
"https://github.com/plataformatec/devise/wiki/How-To:-Redirect-back-to-current-page-after-sign-in,-sign-out,-sign-up,-update",
"https://github.com/plataformatec/devise/wiki/How-To:-Redirect-to-a-specific-page-on-successful-sign-in-or-sign-out",
"http://railscasts.com/episodes/169-dynamic-page-caching?view=asciicast",
"https://agilewarrior.wordpress.com/2014/04/26/how-to-add-a-flash-message-to-your-rails-page/",
"http://guides.rubyonrails.org/security.html",
"https://www.railstutorial.org/book/basic_login",
"https://rails.devcamp.com/dissecting-rails-5/rails-5-authentication/how-to-add-custom-attributes-devise-based-authentication-system",
"https://www.ldstudios.co/blog/posts/how-to-create-custom-authentication-strategies-with-devise-and-warden.html",
"https://www.phase2technology.com/blog/authentication-permissions-and-roles-rails-devise-cancan-and-role-model",
"https://github.com/plataformatec/devise/wiki/How-To:-Add-an-Admin-Role",
"https://github.com/plataformatec/devise",
"http://community.arubanetworks.com/t5/Security/ClearPass-Tips-and-Tricks-Custom-Attributes-Insight-Repository/td-p/228779",
"https://supportforums.cisco.com/t5/aaa-identity-and-nac/acs-5-2-adding-custom-attributes-for-juniper-netscreen-tacacs/td-p/1781489",
"https://www.cisco.com/c/en/us/support/docs/security/secure-access-control-system/115926-tacacs-radius-devices-00.html",
"https://firebase.google.com/docs/analytics/android/properties",
"https://my.air-watch.com/help/9.1/en/Content/Core_Guides/MDM/T/CreateDirectoryUserAccounts.htm",
"https://rails.devcamp.com/dissecting-rails-5/rails-5-authentication/how-to-use-controller-concerns-rails-5-devise-custom-attributes",
"https://utahedu.devcamp.com/sie2017/guide/how-to-use-controller-concerns-rails-5-devise-custom-attributes",
"https://rails.devcamp.com/trails/dissecting-rails-5/campsites/rails-5-authentication",
"https://stackoverflow.com/questions/16379554/strong-parameters-with-rails-and-devise/29387781",
"https://www.sitepoint.com/dry-off-your-rails-code-with-activesupportconcerns/",
"https://github.com/plataformatec/devise",
"http://www.peoplecancode.com/tutorials/adding-custom-fields-to-devise",
"https://www.toptal.com/ruby-on-rails/top-10-mistakes-that-rails-programmers-make",
"http://www.bogotobogo.com/RubyOnRails/RubyOnRails_Devise_Authentication_Sending_Confirmation_Email.php",
"https://rails.devcamp.com/dissecting-rails-5/136/integrate-virtual-attributes-to-extract-first-and-last-name-data-from-a-user",
"http://railscasts.com/episodes/16-virtual-attributes?view=asciicast",
"https://www.ibm.com/support/knowledgecenter/en/SSGHJR_5.2.2/com.ibm.igi.doc/CrossIdeas_Topics/AGC/Setup_User_Virtual_Attributes.html",
"https://technet.microsoft.com/en-us/library/aa964123(v=sql.90).aspx",
"https://utahedu.devcamp.com/sie2017/guide/using-bcrypt-to-implement-encryption-in-ruby",
"https://rails.devcamp.com/trails/dissecting-rails-5/campsites/rails-5-authentication",
"http://learnability.org/courses/dissecting-ruby-on-rails-5-become-a-professional-developer/lectures/3007026",
"https://github.com/codahale/bcrypt-ruby",
"https://coderwall.com/p/sjegjq/use-bcrypt-for-passwords",
"https://www.codeproject.com/Articles/575551/User-Authentication-in-Ruby-on-Rails",
"http://www.thegreatcodeadventure.com/jwt-auth-in-rails-from-scratch/",
"https://news.ycombinator.com/item?id=3724560",
"https://stackoverflow.com/questions/5881169/what-column-type-length-should-i-use-for-storing-a-bcrypt-hashed-password-in-a-d",
"https://www.theodinproject.com/courses/ruby-on-rails/lessons/authentication",
"https://rails.devcamp.com/dissecting-rails-5/ruby-on-rails-controllers/data-flow-review-working-params",
"https://rails.devcamp.com/trails/dissecting-rails-5/campsites/ruby-on-rails-controllers",
"https://github.com/larrytheliquid/dataflow",
"https://github.com/rails/rails/issues/23997",
"https://github.com/rails/strong_parameters",
"https://www.safaribooksonline.com/library/view/learning-rails-3/9781449332211/ch04.html",
"https://www.airpair.com/reactjs/posts/reactjs-a-guide-for-rails-developers",
"https://www.udemy.com/professional-rails-5-development-course/?utm_source=dice&utm_medium=web&utm_campaign=dicepromo&pmtag=dice040promo&aff_code=Ewh3Y19bQHUGQRt3MkBPbG1RGXFfVFh8BV4bdk5QR3YAQxF1WD5XMRM%3D",
"https://www.pluralsight.com/guides/ruby-ruby-on-rails/building-a-crud-interface-with-react-and-ruby-on-rails",
"https://www.toptal.com/ruby-on-rails/top-10-mistakes-that-rails-programmers-make",
"https://stackoverflow.com/questions/5003516/how-to-remember-a-parameter-value-between-pages-in-a-controller",
"https://stackoverflow.com/questions/32900566/session-variable-between-multiple-requests-in-a-rails-app",
"https://www.justinweiss.com/articles/how-rails-sessions-work/",
"http://www.tenpay.tech/questions/3031644/sharing-session-data-between-rails-and-node",
"https://blog.botreetechnologies.com/how-to-share-session-between-rails-4-applications-49723a18c6af",
"https://www.quora.com/How-can-I-share-a-session-between-Rails-4-applications",
"https://www.quora.com/How-do-I-pass-variables-between-routes-without-using-sessions-in-Ruby-Sinatra",
"https://github.com/andrewhao/sample-rails-phoenix-shared-sessions",
"https://github.com/phoenixframework/phoenix/issues/168",
"http://guides.rubyonrails.org/v2.3.8/action_controller_overview.html",
"https://rails.devcamp.com/dissecting-rails-5/ruby-on-rails-controllers/refactoring-session-tracker-controller-concern",
"https://rails.devcamp.com/trails/dissecting-rails-5/campsites/ruby-on-rails-controllers",
"https://www.devcamp.com/posts/jordan?page=38",
"https://medium.com/mysmallidea/refactoring-code-smells-with-service-objects-88775a7cbaca",
"https://github.com/shakacode/fat-code-refactoring-techniques",
"http://www.agiratech.com/rails-refactoring-techniques-concerns/",
"https://lostechies.com/jimmybogard/2013/12/19/put-your-controllers-on-a-diet-posts-and-commands/",
"https://ayende.com/blog/154209/limit-your-abstractions-refactoring-toward-reduced-abstractions",
"https://www.toptal.com/ruby-on-rails/decoupling-rails-components",
"http://weblog.rubyonrails.org/2012/3/21/strong-parameters/",
"http://guides.rubyonrails.org/action_controller_overview.html",
"http://patshaughnessy.net/2014/6/16/a-rule-of-thumb-for-strong-parameters",
"http://blog.trackets.com/2013/08/17/strong-parameters-by-example.html",
"https://github.com/rails/rails/issues/26075",
"https://github.com/rails/rails/issues/9454",
"https://github.com/rails/rails/issues/23671",
"https://rails.devcamp.com/dissecting-rails-5/ruby-on-rails-controllers/working-strong-params-rails-5-controller",
"https://stackoverflow.com/questions/35153093/rails-5-strong-params-require-not-used-if-one-permit-key-is-set",
"https://rails.devcamp.com/dissecting-rails-5/ruby-on-rails-controllers/implementing-null-object-pattern-rails-override-devise-current-user-method",
"https://utahedu.devcamp.com/sie2017/guide/implementing-null-object-pattern-rails-override-devise-current-user-method",
"https://rails.devcamp.com/trails/dissecting-rails-5/campsites/ruby-on-rails-controllers",
"https://forum.upcase.com/t/null-object-pattern-with-devise/1684",
"https://stackoverflow.com/questions/27169260/guest-user-for-devise-using-null-object-pattern",
"https://www.sitepoint.com/complex-rails-forms-with-nested-attributes/",
"http://weekly5693.rssing.com/chan-61475337/all_p1.html",
"https://github.com/greenruby/grn-static/blob/master/json/stories_array.json",
"https://rails.devcamp.com/dissecting-rails-5/working-views-rails/how-to-customize-rails-master-layout-file",
"https://github.com/plataformatec/devise/wiki/How-To:-Create-custom-layouts",
"https://github.com/thoughtbot/administrate/blob/master/docs/customizing_page_views.md",
"http://guides.rubyonrails.org/v2.3/layouts_and_rendering.html",
"https://stackoverflow.com/questions/1614451/is-there-some-sort-of-master-page-functionality-in-ruby-on-rails",
"https://stackoverflow.com/questions/25738836/rails-render-of-partial-and-layout-in-controller",
"https://www.railstutorial.org/book/filling_in_the_layout",
"http://webdev.cas.msu.edu/s12/webapps/bonappetite/devise/ruby/1.8/gems/railties-3.1.3/guides/output/layouts_and_rendering.html",
"http://www.rubydoc.info/github/thredded/thredded/master/frames",
"https://stackoverflow.com/questions/15228228/multiple-layouts-in-ror",
"https://rails.devcamp.com/dissecting-rails-5/working-views-rails/guide-using-multiple-layout-files-rails-5",
"http://guides.rubyonrails.org/layouts_and_rendering.html",
"http://guides.rubyonrails.org/v3.0.0/layouts_and_rendering.html",
"http://railsapps.github.io/rails-default-application-layout.html",
"https://railsguides.net/rails-nested-layouts/",
"https://richonrails.com/articles/partials-in-ruby-on-rails",
"https://github.com/RailsApps/rails_layout",
"http://guides.rubyonrails.org/getting_started.html",
"http://guides.rubyonrails.org/action_view_overview.html",
"https://rails.devcamp.com/dissecting-rails-5/working-views-rails/introduction-partials-rails-5",
"https://learn.co/lessons/rails-layouts-and-templates",
"http://www.stuartellis.name/articles/erb/",
"https://web.stanford.edu/~ouster/cgi-bin/cs142-fall10/lecture.php?topic=railsIntro",
"https://www.sitepoint.com/introduction-to-cells-a-better-view-layer-for-rails/",
"https://www.railstutorial.org/book/filling_in_the_layout",
"http://urbanhonking.com/ideasfordozens/2006/04/03/learns_to_a_nonetoobrief_intro/",
"https://www.startuprocket.com/articles/a-quick-introduction-to-embedded-ruby-a-k-a-erb-eruby",
"https://rails.devcamp.com/dissecting-rails-5/working-views-rails/how-to-send-data-partials-generate-custom-behavior-rails-5",
"http://guides.rubyonrails.org/layouts_and_rendering.html",
"https://coderwall.com/p/kqb3xq/rails-4-how-to-partials-ajax-dead-easy",
"https://stackoverflow.com/questions/6672454/passing-parameters-to-partial-view",
"https://apidock.com/rails/ActionController/Base/render",
"https://www.pluralsight.com/guides/ruby-ruby-on-rails/creating-a-chat-using-rails-action-cable",
"http://railsapps.github.io/rails-default-application-layout.html",
"https://github.com/varvet/godmin",
"http://guides.rubyonrails.org/action_view_overview.html",
"http://guides.rubyonrails.org/form_helpers.html",
"http://guides.rubyonrails.org/layouts_and_rendering.html",
"https://mixandgo.com/blog/the-beginners-guide-to-rails-helpers",
"https://rubyplus.com/articles/3651-Custom-View-Helpers-in-Rails-5",
"https://rails.devcamp.com/dissecting-rails-5/working-views-rails/how-to-use-rails-content-tag-helper-auto-generate-html-code",
"https://www.pluralsight.com/guides/ruby-ruby-on-rails/token-based-authentication-with-ruby-on-rails-5-api",
"https://6ftdan.com/allyourdev/2015/01/28/rails-helper-methods/",
"https://github.com/drapergem/draper",
"https://rails.devcamp.com/dissecting-rails-5/working-views-rails/how-to-use-rails-content-tag-helper-auto-generate-html-code",
"http://api.rubyonrails.org/classes/ActionView/Helpers/TagHelper.html",
"http://api.rubyonrails.org/classes/ActionView/Helpers/TagHelper.htmlhttp://api.rubyonrails.org/classes/ActionView/Helpers/TagHelper.html",
"http://guides.rubyonrails.org/layouts_and_rendering.html",
"https://apidock.com/rails/ActionView/Helpers/TagHelper/content_tag",
"https://stackoverflow.com/questions/6166031/rails-content-tag-helper-for-simple-things",
"https://thepugautomatic.com/2013/06/helpers/",
"https://middlemanapp.com/basics/helper-methods/",
"https://rails.devcamp.com/dissecting-rails-5/working-views-rails/introduction-rendering-collections-partials-rails-5",
"http://guides.rubyonrails.org/layouts_and_rendering.html",
"http://api.rubyonrails.org/v5.1/classes/ActionView/PartialRenderer.html",
"http://guides.rubyonrails.org/v3.2.8/layouts_and_rendering.html",
"https://www.sitepoint.com/introduction-to-cells-a-better-view-layer-for-rails/",
"https://stackoverflow.com/questions/13872003/rails-render-partial-with-collection",
"https://stackoverflow.com/questions/12188381/render-partial-collection-array-specify-variable-name",
"https://richonrails.com/articles/partials-in-ruby-on-rails",
"http://guides.rubyonrails.org/v2.3/layouts_and_rendering.html",
"http://guides.rubyonrails.org/layouts_and_rendering.html",
"https://stackoverflow.com/questions/2384631/where-to-put-partials-shared-by-the-whole-application-in-rails",
"https://stackoverflow.com/questions/13872003/rails-render-partial-with-collection",
"https://stackoverflow.com/questions/2060561/optional-local-variables-in-rails-partial-templates-how-do-i-get-out-of-the-de",
"https://coderwall.com/p/kqb3xq/rails-4-how-to-partials-ajax-dead-easy",
"https://www.toptal.com/ruby-on-rails/top-10-mistakes-that-rails-programmers-make",
"https://github.com/Sology/smart_listing",
"https://blog.codeship.com/unobtrusive-javascript-via-ajax-rails/",
"https://rails.devcamp.com/dissecting-rails-5/working-views-rails/guide-helpful-actionview-helper-methods-rails-5",
"https://rails.devcamp.com/trails/dissecting-rails-5/campsites/working-views-rails",
"http://guides.rubyonrails.org/form_helpers.html",
"http://guides.rubyonrails.org/layouts_and_rendering.html",
"http://guides.rubyonrails.org/action_view_overview.html",
"http://guides.rubyonrails.org/testing.html",
"http://guides.rubyonrails.org/",
"http://guides.rubyonrails.org/routing.html",
"http://guides.rubyonrails.org/getting_started.html",
"http://guides.rubyonrails.org/asset_pipeline.html",
"https://rails.devcamp.com/dissecting-rails-5/working-views-rails/tips-tricks-working-actionview-rails-5",
"https://rails.devcamp.com/trails/dissecting-rails-5/campsites/working-views-rails",
"http://learnability.org/courses/dissecting-ruby-on-rails-5-become-a-professional-developer/lectures/3008510",
"https://www.udemy.com/professional-rails-5-development-course/?utm_content=_._pd_1052118_._&utm_source=facebook-row&utm_medium=udemyads&utm_campaign=NEW-FB-VRT-ROW-Tech-EN-ALL_._ci_._sl_ALL_._vi_._sd_All_._la_EN_.&utm_term=_._ag_NEW-FB-VRT-ROW-Tech-EN-ALL_._ci_._sl_ALL_._vi_._sd_All_._la_EN_._-_._ci_._._pi_1709479815758742_._gi_all_._ai_18--65_._an_M3oTyZ&k_clickid=527b6aca-c3e1-4692-a584-00d0c63d833a_120504843",
"https://www.udemy.com/professional-rails-5-development-course/?utm_source=careers24&utm_medium=web&utm_campaign=careers24octlaunch&pmtag=CAREERS24LEARN15&aff_code=Ewh3Y1xWRnkGRR5zMkBPbG1RGXFfVFh8CF4ac05QRHYBShFxWT5XMRM%3D",
"https://www.speedshop.co/2015/08/05/rack-mini-profiler-the-secret-weapon.html",
"https://www.justinweiss.com/articles/how-do-you-do-a-rails-deep-dive/",
"https://www.justinweiss.com/articles/respond-to-without-all-the-pain/",
"http://guides.rubyonrails.org/action_view_overview.html",
"http://guides.rubyonrails.org/v3.2/debugging_rails_applications.html",
"https://rubyplus.com/articles/3631-Debugging-using-ByeBug-Gem-in-Rails-5",
"http://railscasts.com/episodes/54-debugging-with-ruby-debug",
"https://github.com/deivid-rodriguez/byebug",
"https://www.jackkinsella.ie/articles/debugging-rails-with-logs",
"https://softwareengineering.stackexchange.com/questions/124575/what-is-a-practical-way-to-debug-rails",
"http://nofail.de/2013/10/debugging-rails-applications-in-development/",
"http://guides.rubygems.org/rubygems-basics/",
"https://code.tutsplus.com/articles/ruby-for-newbies-working-with-gems--net-18977",
"https://www.digitalocean.com/community/tutorials/how-to-package-and-distribute-ruby-applications-as-a-gem-using-rubygems",
"https://www.digitalocean.com/community/tutorials/how-to-work-with-the-ruby-package-manager-rubygems-getting-started",
"https://github.com/jashkenas/ruby-processing/wiki/using-rubygems",
"https://stackoverflow.com/questions/220176/how-can-i-install-a-local-gem",
"https://en.wikipedia.org/wiki/RubyGems",
"http://blog.honeybadger.io/stop-using-rubygemsorg-in-production/",
"https://docs.puppet.com/puppetserver/2.2/gems.html",
"http://railsapps.github.io/rails-authorization.html",
"https://www.ruby-toolbox.com/categories/rails_authorization.html",
"https://blog.chaps.io/2015/11/13/role-based-authorization-in-rails.html",
"http://culttt.com/2016/01/20/implementing-roles-and-permissions-in-ruby-on-rails/",
"https://github.com/ryanb/cancan/wiki/Role-Based-Authorization",
"https://github.com/elabs/pundit",
"https://github.com/RailsApps/rails-devise-roles",
"http://tutorials.jumpstartlab.com/topics/auth/authorization.html",
"http://billpatrianakos.me/blog/2013/10/22/authorize-users-based-on-roles-and-permissions-without-a-gem/",
"https://github.com/thoughtbot/paperclip",
"https://github.com/bbatsov/rails-style-guide",
"https://stackoverflow.com/questions/15512160/paperclip-styles-attribute-doesnt-work",
"https://stackoverflow.com/questions/20264598/adding-new-styles-to-stylesheet-not-working-in-rails",
"https://stackoverflow.com/questions/23259155/paperclip-style-options-not-working-with-s3-direct-upload",
"https://stackoverflow.com/questions/9768518/rails-link-to-with-inline-styling",
"https://stackoverflow.com/questions/25439004/bootstrap-buttons-not-applying-styles-ruby-on-rails",
"https://forum.upcase.com/t/cant-get-paperclip-styles-to-work/431",
"https://medium.com/@peternixey/a-more-manageable-approach-to-css-in-rails-and-angular-b4bea8d056db",
"http://guides.rubyonrails.org/working_with_javascript_in_rails.html",
"https://www.netguru.co/blog/java-script-ruby-on-rails-resources",
"https://gorails.com/episodes/including-third-party-javascript-libraries-with-rails",
"https://github.com/kbparagua/paloma",
"http://brandonhilkert.com/blog/organizing-javascript-in-rails-application-with-turbolinks/",
"https://medium.com/@hpux/rails-5-1-loves-javascript-a1d84d5318b",
"http://railsapps.github.io/rails-javascript-include-external.html",
"https://www.forbes.com/forbes/welcome/?toURL=https://www.forbes.com/sites/quora/2017/06/14/will-javascript-frameworks-eclipse-ruby-on-rails/&refURL=https://www.google.com/&referrer=https://www.google.com/",
"https://stackoverflow.com/questions/28139504/best-way-to-store-videos-and-images-in-rails",
"https://cloudinary.com/documentation/rails_video_manipulation",
"https://cloudinary.com/documentation/rails_integration",
"https://www.sitepoint.com/youtube-rails/",
"http://railscasts.com/episodes/374-image-manipulation?view=asciicast",
"https://www.netguru.co/tips/how-to-upload-and-transform-images-in-ruby-on-rails-using-cloudinary",
"https://code.tutsplus.com/tutorials/rails-image-upload-using-carrierwave-in-a-rails-app--cms-25183",
"https://rubyplus.com/articles/3681-Complex-Forms-in-Rails-5",
"http://guides.rubyonrails.org/form_helpers.html",
"https://rails.devcamp.com/dissecting-rails-5/data-management-rails/rails-5-complex-forms-configuring-nested-attributes-form",
"https://m.patrikonrails.com/rails-5-1s-form-with-vs-old-form-helpers-3a5f72a8c78a",
"https://stackoverflow.com/questions/40621363/complex-rails-form-with-nested-attributes-rails-5",
"https://www.sitepoint.com/better-nested-attributes-in-rails-with-the-cocoon-gem/",
"https://github.com/bootstrap-ruby/rails-bootstrap-forms",
"https://apotonick.wordpress.com/2015/05/21/on-rails5-presenters-and-form-objects/",
"https://www.reddit.com/r/rails/comments/4a4a66/q_nested_attributes_in_rails_45_forms/",
"http://blog.codeclimate.com/blog/2012/02/07/what-code-goes-in-the-lib-directory/",
"https://gist.github.com/maxim/6503591",
"https://devblast.com/b/rails-app-vs-lib",
"https://dockyard.com/blog/ruby/2012/02/14/love-your-lib-directory",
"http://discourse.codenewbie.org/t/rails-experts-i-cant-include-ruby-files-from-lib-dir/528",
"https://stackoverflow.com/questions/18392708/rails-cant-access-a-module-in-my-lib-directory",
"https://stackoverflow.com/questions/38198668/rails-5-load-lib-files-in-production",
"https://stackoverflow.com/questions/19098663/auto-loading-lib-files-in-rails-4",
"https://stackoverflow.com/questions/13239584/learning-about-the-lib-directory-in-rails",
"http://blog.lunarlogic.io/2013/declutter-lib-directory/",
"http://mgiroux.me/2016/realtime-updates-with-relay/",
"https://www.sitepoint.com/rails-and-actioncable-adding-advanced-features/",
"https://rails.devcamp.com/dissecting-rails-5/live-data-actioncable/guide-implementing-live-data-updates-rails-5-application-actioncable",
"http://myprogrammingblog.com/2016/08/22/rails5-actioncable-realtime-notifications-part3/",
"https://www.onehub.com/blog/2016/02/18/event-notifications-in-rails-5-with-actioncable/",
"https://www.agencyascend.com/blog/real-time-applications-rails-5-and-actioncable",
"http://samuelmullen.com/articles/introduction-to-actioncable-in-rails-5/",
"https://www.reddit.com/r/rails/comments/3zu4yh/action_cablelive_data_updates_discussion/",
"https://github.com/plataformatec/devise/wiki/How-To:-Add-a-default-role-to-a-User",
"https://stackoverflow.com/questions/32158836/how-to-add-roles-to-my-users-in-rails-app",
"http://culttt.com/2016/01/20/implementing-roles-and-permissions-in-ruby-on-rails/",
"http://codepany.com/blog/rails-5-user-accounts-with-3-types-of-roles-devise-rails_admin-cancancan/",
"https://rubyonrailshelp.wordpress.com/2014/01/03/creating-user-and-admin-model-using-devise-rails/",
"https://www.railstutorial.org/book/modeling_users",
"https://rails.devcamp.com/dissecting-rails-5/live-data-actioncable/running-comment-generator-installing-nosql-redis-database-rails-5",
"http://learnability.org/courses/197296/lectures/3009062",
"https://github.com/samvera/curation_concerns",
"https://medium.com/rubyinside/action-cable-hello-world-with-rails-5-1-efc475b0208b",
"https://dzone.com/articles/getting-the-most-out-of-your-database-with-ruby-on",
"https://gorails.com/episodes/multi-user-spreadsheets-with-actioncable-part-1",
"https://awesome-go.com/",
"https://rails.devcamp.com/dissecting-rails-5/live-data-actioncable/building-comment-form-required-controller-actions-managing-data-flow",
"https://www.devcamp.com/posts/jordan?page=42",
"https://powerapps.microsoft.com/en-us/tutorials/function-form/",
"https://github.com/reactjs/redux/issues/297",
"https://blog.iansinnott.com/managing-state-and-controlled-form-fields-with-react/",
"https://developer.salesforce.com/page/Building_Visualforce_Pages_Using_the_Standard_Controller",
"https://stackoverflow.com/questions/2279282/how-to-process-a-form-with-codeigniter",
"https://www.entrepreneur.com/article/66008",
"https://www.devcamp.com/posts/jordan?page=42",
"https://docs.microsoft.com/en-us/aspnet/mvc/overview/older-versions/getting-started-with-aspnet-mvc4/adding-validation-to-the-model",
"https://www.toptal.com/ruby-on-rails/decoupling-rails-components",
"https://www.devexpress.com/Support/Center/Question/Details/T433837/combobox-validation-in-nested-content-partial-view",
"https://www.devexpress.com/Support/Center/Question/Details/T553718/how-to-dynamically-add-a-partial-view-with-textbox-to-the-form-and-enable-validation",
"http://www.nakov.com/blog/2015/05/28/free-asp-net-mvc-hands-on-lab/",
"http://guides.rubyonrails.org/v3.0.3/getting_started.html",
"http://www.boostlabs.com/data-validation-survey-data/",
"https://www.pluralsight.com/guides/ruby-ruby-on-rails/creating-a-chat-using-rails-action-cable",
"https://www.sitepoint.com/action-cable-and-websockets-an-in-depth-tutorial/",
"https://www.npmjs.com/package/actioncable",
"https://www.spectory.com/blog/ActionCable%20in%20Rails%205",
"http://guides.rubyonrails.org/action_cable_overview.html",
"https://scotch.io/tutorials/asynchronous-chat-with-rails-and-actioncable",
"http://www.thegreatcodeadventure.com/rails-5-action-cable-with-multiple-chatroom-subscriptions/",
"http://api.rubyonrails.org/classes/ActionCable/Server/Broadcasting.html",
"http://guides.rubyonrails.org/action_cable_overview.html",
"https://rails.devcamp.com/dissecting-rails-5/live-data-actioncable/how-to-create-broadcast-actioncable-rails-5",
"https://rails.devcamp.com/dissecting-rails-5/live-data-actioncable/how-to-create-broadcast-actioncable-rails-5",
"https://rails.devcamp.com/dissecting-rails-5/live-data-actioncable/guide-implementing-live-data-updates-rails-5-application-actioncable",
"https://rails.devcamp.com/trails/dissecting-rails-5/campsites/live-data-actioncable",
"http://learnability.org/courses/dissecting-ruby-on-rails-5-become-a-professional-developer/lectures/3009068",
"https://blog.heroku.com/real_time_rails_implementing_websockets_in_rails_5_with_action_cable",
"http://guides.rubyonrails.org/upgrading_ruby_on_rails.html",
"https://blog.codeship.com/actioncable-the-missing-guide/",
"https://www.zweitag.de/en/blog/technology/lets-build-a-chat-with-actioncable",
"http://learnability.org/courses/197296/lectures/3009067",
"https://github.com/gottfrois/link_thumbnailer",
"https://codediode.io/lessons/198632-default-avatars-with-username-initials",
"https://www.sitepoint.com/nested-comments-rails/",
"https://teamtreehouse.com/library/image-uploads-in-ruby-on-rails-41",
"http://railscasts.com/episodes/182-cropping-images?view=comments",
"https://css-tricks.com/creating-responsive-touch-friendly-carousels-with-flickity/",
"https://code4startup.com/projects/airalien-clone-airbnb-with-ruby-on-rails-bootstrap-jquery-and-paypal",
"https://support.office.com/en-us/article/Assignment-Owner-assignment-field-3b8d9117-91e5-4f83-9043-7270b3672184",
"https://ocw.mit.edu/courses/urban-studies-and-planning/11-005-introduction-to-international-development-spring-2015/assignments/final-project/",
"http://www.projectmanagementdocs.com/project-planning-templates/project-management-plan.html#axzz4viYH2tcG",
"https://myelms.umd.edu/courses/1171792/assignments/3882844",
"https://cehe.instructure.com/courses/20729/assignments/391270",
"https://rails.devcamp.com/dissecting-rails-5/rails-best-practices-refactors/building-scope-show-most-recent-blog-posts-hiding-drafts-non-admins",
"https://www.siteleaf.com/blog/customizing-the-siteleaf-admin/",
"https://www.contentful.com/r/knowledgebase/roles-and-permissions/",
"https://codex.wordpress.org/Content_Visibility",
"https://make.wordpress.org/design/2013/08/26/dash-proposed-project-scope/",
"https://wordpress.org/plugins/quick-drafts-access/",
"https://stackoverflow.com/questions/12655415/how-to-hide-the-url-displayed-after-the-links-from-browser-view-in-development-m",
"https://stackoverflow.com/questions/40432514/rails-5-with-jquery-form-with-show-and-hide-jquery-toggle-will-show-initially",
"https://stackoverflow.com/questions/10431741/hide-a-field-in-ruby-on-rails",
"https://stackoverflow.com/questions/38840307/rails-4-jquery-to-hide-show-form-fields-when-radio-button-is-moved-to-true",
"https://rails.devcamp.com/dissecting-rails-5/data-flow-rails/how-to-use-enums-rails-manage-data-stages",
"https://www.techcareerbooster.com/blog/how-to-create-a-blog-inside-your-rails-application",
"https://www.umass.edu/it/support/blogs/blog-pages-create-edit-manage-pages-your-blog",
"https://blog.bigbinary.com/page3/",
"https://rails.devcamp.com/dissecting-rails-5/rails-best-practices-refactors/how-add-drop-down-form-element-rails-5-parent-child-relationships",
"https://stackoverflow.com/questions/4380464/rails-form-for-selecting-an-existing-parent-when-creating-new-child-records",
"http://guides.rubyonrails.org/form_helpers.html",
"https://agilewarrior.wordpress.com/2011/09/30/how-to-add-a-drop-down-resource-to-an-existing-rails-model/",
"https://github.com/justinfrench/formtastic",
"https://github.com/nathanvda/cocoon/wiki/A-guide-to-doing-nested-model-forms",
"http://laptite.github.io/blog/2014/02/26/deep-nesting-with-has-many-through-and-a-join-model/",
"http://railscasts.com/episodes/88-dynamic-select-menus-revised?view=comments",
"http://ieeexplore.ieee.org/document/6321719/",
"http://ieeexplore.ieee.org/document/6438971/",
"https://github.com/Shopify/shopify_app",
"https://www.neotys.com/documents/doc/neoload/latest/#2983.htm",
"https://docs.microsoft.com/en-us/azure/app-service/app-service-web-tutorial-rest-api",
"https://docs.microsoft.com/en-us/windows/threat-protection/overview-of-threat-mitigations-in-windows-10",
"http://processors.wiki.ti.com/index.php/Projects_and_Build_Handbook_for_CCS",
"https://evilmartians.com/chronicles/new-feature-in-rails-5-render-views-outside-of-actions",
"https://github.com/thredded/thredded",
"http://aymeric.gaurat.net/2010/how-to-build-your-own-widget-in-ruby-on-rails-in-10-minutes/",
"https://launchschool.com/blog/integrating-rails-and-bootstrap-part-1",
"http://blog.honeybadger.io/ditching-your-single-page-app-for-turbolinks/",
"https://cloudinary.com/blog/top_10_mistakes_in_handling_website_images_and_how_to_solve_them",
"https://rails.devcamp.com/dissecting-rails-5/rails-best-practices-refactors/how-to-implement-radio-buttons-rails-form-update-enum-values-blog-status",
"https://stackoverflow.com/questions/25068493/how-do-you-use-active-record-enum-radio-buttons-in-a-form",
"https://stackoverflow.com/questions/23686265/saving-enum-from-select-in-rails-4-1",
"https://stackoverflow.com/questions/35006319/given-a-model-enum-how-to-create-a-radio-button-group",
"https://richonrails.com/articles/active-record-enums-in-ruby-on-rails-4-1",
"https://hackhands.com/ruby-on-enums-queries-and-rails-4-1/",
"https://rails.devcamp.com/dissecting-rails-5/rails-best-practices-refactors/guide-integrating-markdown-syntax-highlighting-rails-5-application",
"https://rails.devcamp.com/dissecting-rails-5/implementing-version-control/guide-markdown-syntax",
"https://richonrails.com/articles/rendering-markdown-with-redcarpet",
"https://github.com/rubyide/vscode-ruby",
"https://github.com/jejacks0n/mercury",
"https://github.com/livingstyleguide/livingstyleguide",
"https://www.codefellows.org/blog/how-to-create-a-markdown-friendly-blog-in-a-rails-app/",
"https://developers.google.com/search/docs/data-types/breadcrumbs",
"https://docs.themegrill.com/suffice/",
"https://www.smashingmagazine.com/2009/03/breadcrumbs-in-web-design-examples-and-best-practices/",
"https://themes.artbees.net/docs/no-title-or-breadcrumbs-in-posts/",
"http://www.kriesi.at/support/topic/breadcrumbs-how-to-show-home-instead-of-blog-title-in-the-breadcrumbs/",
"http://help.smugmug.com/customer/portal/articles/1210628-customization-what-are-content-blocks-how-are-they-used-",
"https://github.com/git-no/jekyll-breadcrumbs",
"http://prideparrot.com/blog/archive/2012/12/how_to_create_a_simple_blog_part1",
"https://github.com/activeadmin/activeadmin/issues/30",
"http://www.yiiframework.com/doc/blog/1.1/en/post.create",
"https://activeadmin.info/8-custom-actions.html",
"https://activeadmin.info/10-custom-pages.html",
"https://lostechies.com/derickbailey/2011/05/24/dont-do-role-based-authorization-checks-do-activity-based-checks/",
"https://learn.getgrav.org/cookbook/tutorials/create-a-blog",
"http://agiliq.com/books/djenofdjango/chapter4.html",
"https://v4-alpha.getbootstrap.com/components/navbar/",
"https://v4-alpha.getbootstrap.com/examples/navbars/",
"https://codepen.io/Craig-Watson/pen/wGLebK",
"https://www.taniarascia.com/responsive-dropdown-navigation-bar/",
"https://bootstrapbay.com/blog/bootstrap-tutorial-navbar/",
"https://github.com/twbs/bootstrap/issues/17532",
"http://www.qnx.com/developers/docs/6.6.0.update/index.html#com.qnx.doc.screen/topic/manual/cscreen_about.html",
"http://www.qnx.com/developers/docs/7.0.0/index.html#com.qnx.doc.neutrino.prog/topic/overview_SCHEDS.html",
"https://developers.google.com/web/updates/2017/02/media-session",
"https://developer.apple.com/library/content/documentation/WindowsViews/Conceptual/CollectionViewPGforIOS/CreatingCellsandViews/CreatingCellsandViews.html",
"https://developer.apple.com/videos/wwdc2017/",
"https://rails.devcamp.com/dissecting-rails-5/rails-best-practices-refactors/how-to-integrate-favicon-rails-5",
"https://stackoverflow.com/questions/11071445/favicon-in-ruby-on-rails-application",
"https://stackoverflow.com/questions/9901910/how-to-add-favicon-in-rails-3-2",
"https://www.rubyplus.com/articles/1751-How-to-Add-Favicon-to-Rails-4-2-App-in-5-minutes",
"https://realfavicongenerator.net/",
"https://www.w3.org/2005/10/howto-favicon",
"http://timnew.me/blog/2014/08/18/favicon-is-not-as-simple-as-you-think/",
"http://www.creativebloq.com/netmag/build-responsive-site-week-media-queries-part-4-4122963",
"https://react.rocks/tag/Layout",
"https://www.toptal.com/designers/responsive/introduction-to-responsive-web-design-pseudo-elements-media-queries",
"https://www.smashingmagazine.com/2011/01/guidelines-for-responsive-web-design/",
"https://trailhead.salesforce.com/en/modules/visualforce_mobile_salesforce1/units/visualforce_mobile_salesforce1_layouts_cards",
"https://www.wellsfargo.com/debit-card/design/",
"https://designschool.canva.com/blog/contact-us-page-design/",
"https://support.squarespace.com/hc/en-us/articles/206543887-Creating-a-Contact-page",
"https://www.w3schools.com/howto/howto_css_cards.asp",
"https://support.apple.com/kb/PH23654?locale=en_US",
"https://en.support.wordpress.com/forms/contact-form/",
"https://www.foregroundweb.com/photography-contact-pages/",
"https://launchschool.com/blog/integrating-rails-and-bootstrap-part-2",
"https://hackernoon.com/using-bootstrap-in-rails-5-969cbe423926",
"https://www.udemy.com/professional-rails-5-development-course/",
"https://www.packtpub.com/mapt/book/web_development/9781783987269/6/ch06lvl1sec33/adding-a-navigation-bar-to-the-rails-application",
"https://www.webascender.com/blog/tutorial-using-materialize-ruby-rails-simple-form/",
"https://learnetto.com/blog/3-ways-to-use-react-with-ruby-on-rails-5",
"https://github.com/turbolinks/turbolinks",
"https://github.com/jondot/awesome-react-native",
"https://stackoverflow.com/questions/17370604/how-can-i-use-progress-bar-from-bootstrap-in-my-rails-app",
"https://www.quora.com/Could-you-tell-me-how-to-integrate-a-progress-bar-of-Bootstrap-in-Ruby-on-Rails-4",
"http://geekhmer.github.io/blog/2014/11/14/add-progress-bar-in-ruby-on-rails-application/",
"https://github.com/spacewander/rails-bootstrap-progressbar",
"http://jasontruluck.org/blog/bootstrap/refile/images/ui/2015/04/07/Adding-Bootstrap-Progress-Bars-for-Refile.html",
"https://www.safaribooksonline.com/library/view/rails-angular-postgres/9781680501803/f_0071.xhtml",
"https://hackernoon.com/using-bootstrap-in-rails-5-969cbe423926",
"https://infinum.co/the-capsized-eight/progress-bar-in-rails",
"https://gist.github.com/anotheruiguy/7379570",
"https://rails.devcamp.com/dissecting-rails-5/rails-best-practices-refactors/how-to-integrate-custom-fonts-rails-5-application",
"https://stackoverflow.com/questions/21250303/official-way-of-adding-custom-fonts-to-rails-4",
"https://stackoverflow.com/questions/12329137/how-to-add-a-custom-font-to-rails-app",
"https://stackoverflow.com/questions/30823400/adding-custom-fonts-in-rails",
"https://stackoverflow.com/questions/23411948/how-to-add-a-custom-font-to-rails-app",
"https://coderwall.com/p/v5c8kq/web-fonts-and-rails-asset-pipeline",
"https://rails.devcamp.com/professional-rails-development-course/advanced-user-features/updating-a-rails-seed-file",
"https://stackoverflow.com/questions/20915191/create-or-update-records-in-seeds-db",
"https://stackoverflow.com/questions/18569240/how-to-add-new-seed-data-to-existing-rails-database",
"https://stackoverflow.com/questions/8598329/what-is-the-best-practice-for-updating-rails-seed-data",
"http://www.xyzpub.com/en/ruby-on-rails/3.2/seed_rb.html",
"https://github.com/mbleigh/seed-fu",
"https://signup.heroku.com/",
"https://devcenter.heroku.com/articles/creating-apps",
"https://signup.heroku.com/ruby",
"https://devcenter.heroku.com/start",
"https://devcenter.heroku.com/articles/git",
"https://signup.heroku.com/php",
"https://www.heroku.com",
"https://devcenter.heroku.com/articles/getting-started-with-rails5",
"https://blog.heroku.com/container_ready_rails_5",
"https://guides.railsapps.org/rails-deploy-to-heroku.html",
"http://curriculum.railsbridge.org/intro-to-rails/deploying_to_heroku",
"https://gist.github.com/thebucknerlife/606a8948daae21fd77fe",
"http://blog.trueheart78.com/ruby/2016/09/18/heroku-setup-for-rails.html",
"https://www.codecademy.com/articles/deploy-rails-to-heroku",
"https://devcenter.heroku.com/articles/getting-started-with-rails4",
"https://devcenter.heroku.com/articles/getting-started-with-rails5",
"https://stackoverflow.com/questions/16472981/heroku-rails-console-does-not-start-any-more",
"https://stackoverflow.com/questions/15527383/running-rails-console-on-heroku-in-sandbox-mode",
"https://rails.devcamp.com/learn-ruby-on-rails-from-scratch/deploying-a-rails-application/accessing-the-rails-console-on-heroku",
"https://rails.devcamp.com/dissecting-rails-5/deployment/working-rails-console-heroku",
"https://guides.railsapps.org/rails-deploy-to-heroku.html",
"https://rails.devcamp.com/dissecting-rails-5/deployment/installing-redis-heroku-actioncable-commenting-feature",
"https://rails.devcamp.com/trails/dissecting-rails-5/campsites/deployment",
"https://github.com/rails/rails/issues/30527",
"https://blog.heroku.com/real_time_rails_implementing_websockets_in_rails_5_with_action_cable",
"http://www.thegreatcodeadventure.com/deploying-action-cable-to-heroku/",
"http://www.thegreatcodeadventure.com/deploying-action-cable-to-heroku/",
"http://www.thegreatcodeadventure.com/rails-5-preview-action-cable/",
"https://www.sitepoint.com/create-a-chat-app-with-rails-5-actioncable-and-devise/",
"https://blog.heroku.com/real_time_rails_implementing_websockets_in_rails_5_with_action_cable",
"http://www.thegreatcodeadventure.com/deploying-action-cable-to-heroku/",
"https://medium.com/@JeremyVe/rails-5-actioncable-and-heroku-b10880dafb58",
"http://willschenk.com/deploying-actioncable-on-heroku/",
"https://gorails.com/episodes/deploy-actioncable-and-rails-5",
"https://rails.devcamp.com/dissecting-rails-5/deployment/configuring-rails-5-application-work-heroku",
"https://stackoverflow.com/questions/40755140/how-do-you-configure-actioncable-to-work-with-heroku",
"https://stackoverflow.com/questions/40797107/actioncable-does-not-work-after-deploy-to-heroku",
"https://rails.devcamp.com/dissecting-rails-5/dissecting-rails-course-updates/integrating-typed-js-code-library-rails-application",
"https://github.com/TheDartCode/typedjs-rails",
"https://github.com/sadiqmmm/plyr-rails",
"https://github.com/sadiqmmm/plyr-rails",
"https://rlafranchi.github.io/2016/03/09/vuejs-and-rails/",
"http://www.mattboldt.com/demos/typed-js/",
]
